Version 4
SHEET 1 880 680
WIRE 208 -208 -16 -208
WIRE 208 -176 208 -208
WIRE -16 -160 -16 -208
WIRE 208 -64 208 -96
WIRE 208 -64 128 -64
WIRE 240 -64 208 -64
WIRE 240 0 240 -64
WIRE 336 0 240 0
WIRE 496 0 400 0
WIRE 240 16 240 0
WIRE 496 32 496 0
WIRE 64 64 -16 64
WIRE 128 64 128 0
WIRE 176 64 128 64
WIRE -16 96 -16 64
WIRE 496 128 496 112
WIRE 240 160 240 112
FLAG -16 176 0
FLAG 240 160 0
FLAG -16 -80 0
FLAG 496 128 0
FLAG 496 0 Vout
SYMBOL voltage -16 80 R0
SYMATTR InstName V1
SYMATTR Value wavefile=C:\Users\Chocl\Downloads\Proyectos4tosemestre\normal.wav
SYMBOL cap 64 80 R270
WINDOW 0 32 32 VTop 2
WINDOW 3 0 32 VBottom 2
SYMATTR InstName C1
SYMATTR Value 4.7µ
SYMBOL npn 176 16 R0
SYMATTR InstName Q1
SYMATTR Value 2N3904
SYMBOL voltage -16 -176 R0
SYMATTR InstName V2
SYMATTR Value 9
SYMBOL res 192 -192 R0
SYMATTR InstName R1
SYMATTR Value 100k
SYMBOL cap 336 16 R270
WINDOW 0 32 32 VTop 2
WINDOW 3 0 32 VBottom 2
SYMATTR InstName C2
SYMATTR Value 100n
SYMBOL diode 112 -64 R0
SYMATTR InstName D1
SYMATTR Value 1N914
SYMBOL res 480 16 R0
SYMATTR InstName R2
SYMATTR Value 100k
TEXT -312 -288 Left 2 !.wave "C:\\Users\\Chocl\\Downloads\\Proyectos4tosemestre\\pedaldiablo.wav" 16 44.1k V(Vout)
TEXT -312 200 Left 2 !.tran 10
TEXT 56 -360 Left 2 ;Circuito para comparativa de audios
